
<!--generated on 2025-10-15 by 'SIMPLE SYNTHETIC SCENARIOS 4 SUMO (sss4s)', cleaned with Eclipse SUMO netconvert Version 1.8.0 
<?xml version="1.0" ?>
<ss4sConfiguration>
      <input>
            <grid_length_bothdirections value="200"/>
            <grid_length_bothdirections value="200"/>
            <grid_x_direction value="3"/>
            <grid_y_direction value="3"/>
            <lanes value="2"/>
            <traffic_light_all value="False"/>
            <traffic_light value="[4]"/>
            <traffic_light_notall value="[]"/>
            <speed value="8.0"/>
            <polygon value="False"/>
      </input>
</ss4sConfiguration>
<configuration xmlns:xsi="http://www.w3.org/2001/XMLSchema-instance" xsi:noNamespaceSchemaLocation="http://sumo.dlr.de/xsd/netconvertConfiguration.xsd">

    <input>
        <sumo-net-file value="/home/joahannes/project/sss4s/networks/road_networks/grid.net.xml"/>
    </input>

    <output>
        <output-file value="/home/joahannes/project/sss4s/networks/road_networks/grid.net.xml"/>
    </output>

    <processing>
        <geometry.min-radius.fix.railways value="false"/>
        <geometry.max-grade.fix value="false"/>
        <offset.disable-normalization value="true"/>
        <lefthand value="false"/>
    </processing>

    <tls_building>
        <tls.set value="junc4"/>
    </tls_building>

    <junctions>
        <no-turnarounds value="true"/>
        <junctions.corner-detail value="0"/>
        <junctions.limit-turn-speed value="-1"/>
        <rectangular-lane-cut value="false"/>
    </junctions>

    <pedestrian>
        <walkingareas value="false"/>
    </pedestrian>

    <report>
        <aggregate-warnings value="5"/>
    </report>

</configuration>

-->

<net version="1.6" xmlns:xsi="http://www.w3.org/2001/XMLSchema-instance" xsi:noNamespaceSchemaLocation="http://sumo.dlr.de/xsd/net_file.xsd">

    <location netOffset="0.00,0.00" convBoundary="0.00,-400.00,400.00,0.00" origBoundary="0.00,-400.00,400.00,0.00" projParameter="!"/>

    <edge id=":junc0_0" function="internal">
        <lane id=":junc0_0_0" index="0" speed="8.00" length="18.06" shape="6.40,4.80 1.50,4.10 -2.00,2.00 -4.10,-1.50 -4.80,-6.40"/>
    </edge>
    <edge id=":junc0_1" function="internal">
        <lane id=":junc0_1_0" index="0" speed="8.00" length="12.90" shape="6.40,1.60 2.90,1.10 0.40,-0.40 -1.10,-2.90 -1.60,-6.40"/>
    </edge>
    <edge id=":junc0_2" function="internal">
        <lane id=":junc0_2_0" index="0" speed="8.00" length="2.58" shape="4.80,-6.40 4.90,-5.70 5.20,-5.20 5.70,-4.90 6.40,-4.80"/>
    </edge>
    <edge id=":junc0_3" function="internal">
        <lane id=":junc0_3_0" index="0" speed="8.00" length="7.74" shape="1.60,-6.40 1.90,-4.30 2.80,-2.80 4.30,-1.90 6.40,-1.60"/>
    </edge>
    <edge id=":junc1_0" function="internal">
        <lane id=":junc1_0_0" index="0" speed="8.00" length="20.80" shape="210.40,4.80 189.60,4.80"/>
        <lane id=":junc1_0_1" index="1" speed="8.00" length="20.80" shape="210.40,1.60 189.60,1.60"/>
    </edge>
    <edge id=":junc1_2" function="internal">
        <lane id=":junc1_2_0" index="0" speed="8.00" length="6.96" shape="210.40,1.60 205.15,0.85 203.73,-0.00"/>
    </edge>
    <edge id=":junc1_10" function="internal">
        <lane id=":junc1_10_0" index="0" speed="8.00" length="12.40" shape="203.73,-0.00 201.40,-1.40 199.15,-5.15 198.40,-10.40"/>
    </edge>
    <edge id=":junc1_3" function="internal">
        <lane id=":junc1_3_0" index="0" speed="8.00" length="9.03" shape="204.80,-10.40 205.15,-7.95 206.20,-6.20 207.95,-5.15 210.40,-4.80"/>
    </edge>
    <edge id=":junc1_4" function="internal">
        <lane id=":junc1_4_0" index="0" speed="8.00" length="14.19" shape="201.60,-10.40 202.15,-6.55 203.80,-3.80 206.55,-2.15 210.40,-1.60"/>
    </edge>
    <edge id=":junc1_5" function="internal">
        <lane id=":junc1_5_0" index="0" speed="8.00" length="19.35" shape="201.60,-10.40 200.85,-5.15 198.60,-1.40 194.85,0.85 189.60,1.60"/>
    </edge>
    <edge id=":junc1_6" function="internal">
        <lane id=":junc1_6_0" index="0" speed="8.00" length="9.03" shape="189.60,-4.80 192.05,-5.15 193.80,-6.20 194.85,-7.95 195.20,-10.40"/>
    </edge>
    <edge id=":junc1_7" function="internal">
        <lane id=":junc1_7_0" index="0" speed="8.00" length="11.73" shape="189.60,-4.80 193.45,-5.15 196.20,-6.20 197.85,-7.95 198.40,-10.40"/>
    </edge>
    <edge id=":junc1_8" function="internal">
        <lane id=":junc1_8_0" index="0" speed="8.00" length="20.80" shape="189.60,-4.80 210.40,-4.80"/>
        <lane id=":junc1_8_1" index="1" speed="8.00" length="20.80" shape="189.60,-1.60 210.40,-1.60"/>
    </edge>
    <edge id=":junc2_0" function="internal">
        <lane id=":junc2_0_0" index="0" speed="8.00" length="18.06" shape="404.80,-6.40 404.10,-1.50 402.00,2.00 398.50,4.10 393.60,4.80"/>
    </edge>
    <edge id=":junc2_1" function="internal">
        <lane id=":junc2_1_0" index="0" speed="8.00" length="12.90" shape="401.60,-6.40 401.10,-2.90 399.60,-0.40 397.10,1.10 393.60,1.60"/>
    </edge>
    <edge id=":junc2_2" function="internal">
        <lane id=":junc2_2_0" index="0" speed="8.00" length="2.58" shape="393.60,-4.80 394.30,-4.90 394.80,-5.20 395.10,-5.70 395.20,-6.40"/>
    </edge>
    <edge id=":junc2_3" function="internal">
        <lane id=":junc2_3_0" index="0" speed="8.00" length="7.74" shape="393.60,-1.60 395.70,-1.90 397.20,-2.80 398.10,-4.30 398.40,-6.40"/>
    </edge>
    <edge id=":junc3_0" function="internal">
        <lane id=":junc3_0_0" index="0" speed="8.00" length="20.80" shape="-4.80,-189.60 -4.80,-210.40"/>
        <lane id=":junc3_0_1" index="1" speed="8.00" length="20.80" shape="-1.60,-189.60 -1.60,-210.40"/>
    </edge>
    <edge id=":junc3_2" function="internal">
        <lane id=":junc3_2_0" index="0" speed="8.00" length="6.96" shape="-1.60,-189.60 -0.85,-194.85 0.00,-196.27"/>
    </edge>
    <edge id=":junc3_10" function="internal">
        <lane id=":junc3_10_0" index="0" speed="8.00" length="12.40" shape="0.00,-196.27 1.40,-198.60 5.15,-200.85 10.40,-201.60"/>
    </edge>
    <edge id=":junc3_3" function="internal">
        <lane id=":junc3_3_0" index="0" speed="8.00" length="9.03" shape="10.40,-195.20 7.95,-194.85 6.20,-193.80 5.15,-192.05 4.80,-189.60"/>
    </edge>
    <edge id=":junc3_4" function="internal">
        <lane id=":junc3_4_0" index="0" speed="8.00" length="14.19" shape="10.40,-198.40 6.55,-197.85 3.80,-196.20 2.15,-193.45 1.60,-189.60"/>
    </edge>
    <edge id=":junc3_5" function="internal">
        <lane id=":junc3_5_0" index="0" speed="8.00" length="19.35" shape="10.40,-198.40 5.15,-199.15 1.40,-201.40 -0.85,-205.15 -1.60,-210.40"/>
    </edge>
    <edge id=":junc3_6" function="internal">
        <lane id=":junc3_6_0" index="0" speed="8.00" length="9.03" shape="4.80,-210.40 5.15,-207.95 6.20,-206.20 7.95,-205.15 10.40,-204.80"/>
    </edge>
    <edge id=":junc3_7" function="internal">
        <lane id=":junc3_7_0" index="0" speed="8.00" length="11.73" shape="4.80,-210.40 5.15,-206.55 6.20,-203.80 7.95,-202.15 10.40,-201.60"/>
    </edge>
    <edge id=":junc3_8" function="internal">
        <lane id=":junc3_8_0" index="0" speed="8.00" length="20.80" shape="4.80,-210.40 4.80,-189.60"/>
        <lane id=":junc3_8_1" index="1" speed="8.00" length="20.80" shape="1.60,-210.40 1.60,-189.60"/>
    </edge>
    <edge id=":junc4_0" function="internal">
        <lane id=":junc4_0_0" index="0" speed="8.00" length="9.03" shape="195.20,-189.60 194.85,-192.05 193.80,-193.80 192.05,-194.85 189.60,-195.20"/>
    </edge>
    <edge id=":junc4_1" function="internal">
        <lane id=":junc4_1_0" index="0" speed="8.00" length="11.73" shape="195.20,-189.60 194.85,-193.45 193.80,-196.20 192.05,-197.85 189.60,-198.40"/>
    </edge>
    <edge id=":junc4_2" function="internal">
        <lane id=":junc4_2_0" index="0" speed="8.00" length="20.80" shape="195.20,-189.60 195.20,-210.40"/>
        <lane id=":junc4_2_1" index="1" speed="8.00" length="20.80" shape="198.40,-189.60 198.40,-210.40"/>
    </edge>
    <edge id=":junc4_4" function="internal">
        <lane id=":junc4_4_0" index="0" speed="8.00" length="6.96" shape="198.40,-189.60 199.15,-194.85 200.00,-196.27"/>
    </edge>
    <edge id=":junc4_20" function="internal">
        <lane id=":junc4_20_0" index="0" speed="8.00" length="12.40" shape="200.00,-196.27 201.40,-198.60 205.15,-200.85 210.40,-201.60"/>
    </edge>
    <edge id=":junc4_5" function="internal">
        <lane id=":junc4_5_0" index="0" speed="8.00" length="9.03" shape="210.40,-195.20 207.95,-194.85 206.20,-193.80 205.15,-192.05 204.80,-189.60"/>
    </edge>
    <edge id=":junc4_6" function="internal">
        <lane id=":junc4_6_0" index="0" speed="8.00" length="11.73" shape="210.40,-195.20 206.55,-194.85 203.80,-193.80 202.15,-192.05 201.60,-189.60"/>
    </edge>
    <edge id=":junc4_7" function="internal">
        <lane id=":junc4_7_0" index="0" speed="8.00" length="20.80" shape="210.40,-195.20 189.60,-195.20"/>
        <lane id=":junc4_7_1" index="1" speed="8.00" length="20.80" shape="210.40,-198.40 189.60,-198.40"/>
    </edge>
    <edge id=":junc4_9" function="internal">
        <lane id=":junc4_9_0" index="0" speed="8.00" length="6.96" shape="210.40,-198.40 205.15,-199.15 203.73,-200.00"/>
    </edge>
    <edge id=":junc4_21" function="internal">
        <lane id=":junc4_21_0" index="0" speed="8.00" length="12.40" shape="203.73,-200.00 201.40,-201.40 199.15,-205.15 198.40,-210.40"/>
    </edge>
    <edge id=":junc4_10" function="internal">
        <lane id=":junc4_10_0" index="0" speed="8.00" length="9.03" shape="204.80,-210.40 205.15,-207.95 206.20,-206.20 207.95,-205.15 210.40,-204.80"/>
    </edge>
    <edge id=":junc4_11" function="internal">
        <lane id=":junc4_11_0" index="0" speed="8.00" length="11.73" shape="204.80,-210.40 205.15,-206.55 206.20,-203.80 207.95,-202.15 210.40,-201.60"/>
    </edge>
    <edge id=":junc4_12" function="internal">
        <lane id=":junc4_12_0" index="0" speed="8.00" length="20.80" shape="204.80,-210.40 204.80,-189.60"/>
        <lane id=":junc4_12_1" index="1" speed="8.00" length="20.80" shape="201.60,-210.40 201.60,-189.60"/>
    </edge>
    <edge id=":junc4_14" function="internal">
        <lane id=":junc4_14_0" index="0" speed="8.00" length="6.96" shape="201.60,-210.40 200.85,-205.15 200.00,-203.73"/>
    </edge>
    <edge id=":junc4_22" function="internal">
        <lane id=":junc4_22_0" index="0" speed="8.00" length="12.40" shape="200.00,-203.73 198.60,-201.40 194.85,-199.15 189.60,-198.40"/>
    </edge>
    <edge id=":junc4_15" function="internal">
        <lane id=":junc4_15_0" index="0" speed="8.00" length="9.03" shape="189.60,-204.80 192.05,-205.15 193.80,-206.20 194.85,-207.95 195.20,-210.40"/>
    </edge>
    <edge id=":junc4_16" function="internal">
        <lane id=":junc4_16_0" index="0" speed="8.00" length="11.73" shape="189.60,-204.80 193.45,-205.15 196.20,-206.20 197.85,-207.95 198.40,-210.40"/>
    </edge>
    <edge id=":junc4_17" function="internal">
        <lane id=":junc4_17_0" index="0" speed="8.00" length="20.80" shape="189.60,-204.80 210.40,-204.80"/>
        <lane id=":junc4_17_1" index="1" speed="8.00" length="20.80" shape="189.60,-201.60 210.40,-201.60"/>
    </edge>
    <edge id=":junc4_19" function="internal">
        <lane id=":junc4_19_0" index="0" speed="8.00" length="6.96" shape="189.60,-201.60 194.85,-200.85 196.27,-200.00"/>
    </edge>
    <edge id=":junc4_23" function="internal">
        <lane id=":junc4_23_0" index="0" speed="8.00" length="12.40" shape="196.27,-200.00 198.60,-198.60 200.85,-194.85 201.60,-189.60"/>
    </edge>
    <edge id=":junc5_0" function="internal">
        <lane id=":junc5_0_0" index="0" speed="8.00" length="9.03" shape="395.20,-189.60 394.85,-192.05 393.80,-193.80 392.05,-194.85 389.60,-195.20"/>
    </edge>
    <edge id=":junc5_1" function="internal">
        <lane id=":junc5_1_0" index="0" speed="8.00" length="11.73" shape="395.20,-189.60 394.85,-193.45 393.80,-196.20 392.05,-197.85 389.60,-198.40"/>
    </edge>
    <edge id=":junc5_2" function="internal">
        <lane id=":junc5_2_0" index="0" speed="8.00" length="20.80" shape="395.20,-189.60 395.20,-210.40"/>
        <lane id=":junc5_2_1" index="1" speed="8.00" length="20.80" shape="398.40,-189.60 398.40,-210.40"/>
    </edge>
    <edge id=":junc5_4" function="internal">
        <lane id=":junc5_4_0" index="0" speed="8.00" length="20.80" shape="404.80,-210.40 404.80,-189.60"/>
        <lane id=":junc5_4_1" index="1" speed="8.00" length="20.80" shape="401.60,-210.40 401.60,-189.60"/>
    </edge>
    <edge id=":junc5_6" function="internal">
        <lane id=":junc5_6_0" index="0" speed="8.00" length="6.96" shape="401.60,-210.40 400.85,-205.15 400.00,-203.73"/>
    </edge>
    <edge id=":junc5_10" function="internal">
        <lane id=":junc5_10_0" index="0" speed="8.00" length="12.40" shape="400.00,-203.73 398.60,-201.40 394.85,-199.15 389.60,-198.40"/>
    </edge>
    <edge id=":junc5_7" function="internal">
        <lane id=":junc5_7_0" index="0" speed="8.00" length="9.03" shape="389.60,-204.80 392.05,-205.15 393.80,-206.20 394.85,-207.95 395.20,-210.40"/>
    </edge>
    <edge id=":junc5_8" function="internal">
        <lane id=":junc5_8_0" index="0" speed="8.00" length="14.19" shape="389.60,-201.60 393.45,-202.15 396.20,-203.80 397.85,-206.55 398.40,-210.40"/>
    </edge>
    <edge id=":junc5_9" function="internal">
        <lane id=":junc5_9_0" index="0" speed="8.00" length="19.35" shape="389.60,-201.60 394.85,-200.85 398.60,-198.60 400.85,-194.85 401.60,-189.60"/>
    </edge>
    <edge id=":junc6_0" function="internal">
        <lane id=":junc6_0_0" index="0" speed="8.00" length="18.06" shape="-4.80,-393.60 -4.10,-398.50 -2.00,-402.00 1.50,-404.10 6.40,-404.80"/>
    </edge>
    <edge id=":junc6_1" function="internal">
        <lane id=":junc6_1_0" index="0" speed="8.00" length="12.90" shape="-1.60,-393.60 -1.10,-397.10 0.40,-399.60 2.90,-401.10 6.40,-401.60"/>
    </edge>
    <edge id=":junc6_2" function="internal">
        <lane id=":junc6_2_0" index="0" speed="8.00" length="2.58" shape="6.40,-395.20 5.70,-395.10 5.20,-394.80 4.90,-394.30 4.80,-393.60"/>
    </edge>
    <edge id=":junc6_3" function="internal">
        <lane id=":junc6_3_0" index="0" speed="8.00" length="7.74" shape="6.40,-398.40 4.30,-398.10 2.80,-397.20 1.90,-395.70 1.60,-393.60"/>
    </edge>
    <edge id=":junc7_0" function="internal">
        <lane id=":junc7_0_0" index="0" speed="8.00" length="9.03" shape="195.20,-389.60 194.85,-392.05 193.80,-393.80 192.05,-394.85 189.60,-395.20"/>
    </edge>
    <edge id=":junc7_1" function="internal">
        <lane id=":junc7_1_0" index="0" speed="8.00" length="14.19" shape="198.40,-389.60 197.85,-393.45 196.20,-396.20 193.45,-397.85 189.60,-398.40"/>
    </edge>
    <edge id=":junc7_2" function="internal">
        <lane id=":junc7_2_0" index="0" speed="8.00" length="19.35" shape="198.40,-389.60 199.15,-394.85 201.40,-398.60 205.15,-400.85 210.40,-401.60"/>
    </edge>
    <edge id=":junc7_3" function="internal">
        <lane id=":junc7_3_0" index="0" speed="8.00" length="9.03" shape="210.40,-395.20 207.95,-394.85 206.20,-393.80 205.15,-392.05 204.80,-389.60"/>
    </edge>
    <edge id=":junc7_4" function="internal">
        <lane id=":junc7_4_0" index="0" speed="8.00" length="11.73" shape="210.40,-395.20 206.55,-394.85 203.80,-393.80 202.15,-392.05 201.60,-389.60"/>
    </edge>
    <edge id=":junc7_5" function="internal">
        <lane id=":junc7_5_0" index="0" speed="8.00" length="20.80" shape="210.40,-395.20 189.60,-395.20"/>
        <lane id=":junc7_5_1" index="1" speed="8.00" length="20.80" shape="210.40,-398.40 189.60,-398.40"/>
    </edge>
    <edge id=":junc7_7" function="internal">
        <lane id=":junc7_7_0" index="0" speed="8.00" length="20.80" shape="189.60,-404.80 210.40,-404.80"/>
        <lane id=":junc7_7_1" index="1" speed="8.00" length="20.80" shape="189.60,-401.60 210.40,-401.60"/>
    </edge>
    <edge id=":junc7_9" function="internal">
        <lane id=":junc7_9_0" index="0" speed="8.00" length="6.96" shape="189.60,-401.60 194.85,-400.85 196.27,-400.00"/>
    </edge>
    <edge id=":junc7_10" function="internal">
        <lane id=":junc7_10_0" index="0" speed="8.00" length="12.40" shape="196.27,-400.00 198.60,-398.60 200.85,-394.85 201.60,-389.60"/>
    </edge>
    <edge id=":junc8_0" function="internal">
        <lane id=":junc8_0_0" index="0" speed="8.00" length="2.58" shape="395.20,-393.60 395.10,-394.30 394.80,-394.80 394.30,-395.10 393.60,-395.20"/>
    </edge>
    <edge id=":junc8_1" function="internal">
        <lane id=":junc8_1_0" index="0" speed="8.00" length="7.74" shape="398.40,-393.60 398.10,-395.70 397.20,-397.20 395.70,-398.10 393.60,-398.40"/>
    </edge>
    <edge id=":junc8_2" function="internal">
        <lane id=":junc8_2_0" index="0" speed="8.00" length="18.06" shape="393.60,-404.80 398.50,-404.10 402.00,-402.00 404.10,-398.50 404.80,-393.60"/>
    </edge>
    <edge id=":junc8_3" function="internal">
        <lane id=":junc8_3_0" index="0" speed="8.00" length="12.90" shape="393.60,-401.60 397.10,-401.10 399.60,-399.60 401.10,-397.10 401.60,-393.60"/>
    </edge>

    <edge id="edge_0" from="junc3" to="junc0" priority="-1">
        <lane id="edge_0_0" index="0" speed="8.00" length="183.20" shape="4.80,-189.60 4.80,-6.40"/>
        <lane id="edge_0_1" index="1" speed="8.00" length="183.20" shape="1.60,-189.60 1.60,-6.40"/>
    </edge>
    <edge id="edge_1" from="junc0" to="junc3" priority="-1">
        <lane id="edge_1_0" index="0" speed="8.00" length="183.20" shape="-4.80,-6.40 -4.80,-189.60"/>
        <lane id="edge_1_1" index="1" speed="8.00" length="183.20" shape="-1.60,-6.40 -1.60,-189.60"/>
    </edge>
    <edge id="edge_10" from="junc8" to="junc5" priority="-1">
        <lane id="edge_10_0" index="0" speed="8.00" length="183.20" shape="404.80,-393.60 404.80,-210.40"/>
        <lane id="edge_10_1" index="1" speed="8.00" length="183.20" shape="401.60,-393.60 401.60,-210.40"/>
    </edge>
    <edge id="edge_11" from="junc5" to="junc8" priority="-1">
        <lane id="edge_11_0" index="0" speed="8.00" length="183.20" shape="395.20,-210.40 395.20,-393.60"/>
        <lane id="edge_11_1" index="1" speed="8.00" length="183.20" shape="398.40,-210.40 398.40,-393.60"/>
    </edge>
    <edge id="edge_12" from="junc1" to="junc0" priority="-1">
        <lane id="edge_12_0" index="0" speed="8.00" length="183.20" shape="189.60,4.80 6.40,4.80"/>
        <lane id="edge_12_1" index="1" speed="8.00" length="183.20" shape="189.60,1.60 6.40,1.60"/>
    </edge>
    <edge id="edge_13" from="junc0" to="junc1" priority="-1">
        <lane id="edge_13_0" index="0" speed="8.00" length="183.20" shape="6.40,-4.80 189.60,-4.80"/>
        <lane id="edge_13_1" index="1" speed="8.00" length="183.20" shape="6.40,-1.60 189.60,-1.60"/>
    </edge>
    <edge id="edge_14" from="junc2" to="junc1" priority="-1">
        <lane id="edge_14_0" index="0" speed="8.00" length="183.20" shape="393.60,4.80 210.40,4.80"/>
        <lane id="edge_14_1" index="1" speed="8.00" length="183.20" shape="393.60,1.60 210.40,1.60"/>
    </edge>
    <edge id="edge_15" from="junc1" to="junc2" priority="-1">
        <lane id="edge_15_0" index="0" speed="8.00" length="183.20" shape="210.40,-4.80 393.60,-4.80"/>
        <lane id="edge_15_1" index="1" speed="8.00" length="183.20" shape="210.40,-1.60 393.60,-1.60"/>
    </edge>
    <edge id="edge_16" from="junc4" to="junc3" priority="-1">
        <lane id="edge_16_0" index="0" speed="8.00" length="179.20" shape="189.60,-195.20 10.40,-195.20"/>
        <lane id="edge_16_1" index="1" speed="8.00" length="179.20" shape="189.60,-198.40 10.40,-198.40"/>
    </edge>
    <edge id="edge_17" from="junc3" to="junc4" priority="-1">
        <lane id="edge_17_0" index="0" speed="8.00" length="179.20" shape="10.40,-204.80 189.60,-204.80"/>
        <lane id="edge_17_1" index="1" speed="8.00" length="179.20" shape="10.40,-201.60 189.60,-201.60"/>
    </edge>
    <edge id="edge_18" from="junc5" to="junc4" priority="-1">
        <lane id="edge_18_0" index="0" speed="8.00" length="179.20" shape="389.60,-195.20 210.40,-195.20"/>
        <lane id="edge_18_1" index="1" speed="8.00" length="179.20" shape="389.60,-198.40 210.40,-198.40"/>
    </edge>
    <edge id="edge_19" from="junc4" to="junc5" priority="-1">
        <lane id="edge_19_0" index="0" speed="8.00" length="179.20" shape="210.40,-204.80 389.60,-204.80"/>
        <lane id="edge_19_1" index="1" speed="8.00" length="179.20" shape="210.40,-201.60 389.60,-201.60"/>
    </edge>
    <edge id="edge_2" from="junc4" to="junc1" priority="-1">
        <lane id="edge_2_0" index="0" speed="8.00" length="179.20" shape="204.80,-189.60 204.80,-10.40"/>
        <lane id="edge_2_1" index="1" speed="8.00" length="179.20" shape="201.60,-189.60 201.60,-10.40"/>
    </edge>
    <edge id="edge_20" from="junc7" to="junc6" priority="-1">
        <lane id="edge_20_0" index="0" speed="8.00" length="183.20" shape="189.60,-395.20 6.40,-395.20"/>
        <lane id="edge_20_1" index="1" speed="8.00" length="183.20" shape="189.60,-398.40 6.40,-398.40"/>
    </edge>
    <edge id="edge_21" from="junc6" to="junc7" priority="-1">
        <lane id="edge_21_0" index="0" speed="8.00" length="183.20" shape="6.40,-404.80 189.60,-404.80"/>
        <lane id="edge_21_1" index="1" speed="8.00" length="183.20" shape="6.40,-401.60 189.60,-401.60"/>
    </edge>
    <edge id="edge_22" from="junc8" to="junc7" priority="-1">
        <lane id="edge_22_0" index="0" speed="8.00" length="183.20" shape="393.60,-395.20 210.40,-395.20"/>
        <lane id="edge_22_1" index="1" speed="8.00" length="183.20" shape="393.60,-398.40 210.40,-398.40"/>
    </edge>
    <edge id="edge_23" from="junc7" to="junc8" priority="-1">
        <lane id="edge_23_0" index="0" speed="8.00" length="183.20" shape="210.40,-404.80 393.60,-404.80"/>
        <lane id="edge_23_1" index="1" speed="8.00" length="183.20" shape="210.40,-401.60 393.60,-401.60"/>
    </edge>
    <edge id="edge_3" from="junc1" to="junc4" priority="-1">
        <lane id="edge_3_0" index="0" speed="8.00" length="179.20" shape="195.20,-10.40 195.20,-189.60"/>
        <lane id="edge_3_1" index="1" speed="8.00" length="179.20" shape="198.40,-10.40 198.40,-189.60"/>
    </edge>
    <edge id="edge_4" from="junc5" to="junc2" priority="-1">
        <lane id="edge_4_0" index="0" speed="8.00" length="183.20" shape="404.80,-189.60 404.80,-6.40"/>
        <lane id="edge_4_1" index="1" speed="8.00" length="183.20" shape="401.60,-189.60 401.60,-6.40"/>
    </edge>
    <edge id="edge_5" from="junc2" to="junc5" priority="-1">
        <lane id="edge_5_0" index="0" speed="8.00" length="183.20" shape="395.20,-6.40 395.20,-189.60"/>
        <lane id="edge_5_1" index="1" speed="8.00" length="183.20" shape="398.40,-6.40 398.40,-189.60"/>
    </edge>
    <edge id="edge_6" from="junc6" to="junc3" priority="-1">
        <lane id="edge_6_0" index="0" speed="8.00" length="183.20" shape="4.80,-393.60 4.80,-210.40"/>
        <lane id="edge_6_1" index="1" speed="8.00" length="183.20" shape="1.60,-393.60 1.60,-210.40"/>
    </edge>
    <edge id="edge_7" from="junc3" to="junc6" priority="-1">
        <lane id="edge_7_0" index="0" speed="8.00" length="183.20" shape="-4.80,-210.40 -4.80,-393.60"/>
        <lane id="edge_7_1" index="1" speed="8.00" length="183.20" shape="-1.60,-210.40 -1.60,-393.60"/>
    </edge>
    <edge id="edge_8" from="junc7" to="junc4" priority="-1">
        <lane id="edge_8_0" index="0" speed="8.00" length="179.20" shape="204.80,-389.60 204.80,-210.40"/>
        <lane id="edge_8_1" index="1" speed="8.00" length="179.20" shape="201.60,-389.60 201.60,-210.40"/>
    </edge>
    <edge id="edge_9" from="junc4" to="junc7" priority="-1">
        <lane id="edge_9_0" index="0" speed="8.00" length="179.20" shape="195.20,-210.40 195.20,-389.60"/>
        <lane id="edge_9_1" index="1" speed="8.00" length="179.20" shape="198.40,-210.40 198.40,-389.60"/>
    </edge>

    <tlLogic id="junc4" type="static" programID="0" offset="0">
        <phase duration="42" state="GGGGgrrrrrGGGGgrrrrr"/>
        <phase duration="3"  state="yyyyyrrrrryyyyyrrrrr"/>
        <phase duration="42" state="rrrrrGGGGgrrrrrGGGGg"/>
        <phase duration="3"  state="rrrrryyyyyrrrrryyyyy"/>
    </tlLogic>

    <junction id="junc0" type="priority" x="0.00" y="0.00" incLanes="edge_12_0 edge_12_1 edge_0_0 edge_0_1" intLanes=":junc0_0_0 :junc0_1_0 :junc0_2_0 :junc0_3_0" shape="6.40,6.40 6.40,-6.40 -6.40,-6.40">
        <request index="0" response="0000" foes="0000" cont="0"/>
        <request index="1" response="0000" foes="0000" cont="0"/>
        <request index="2" response="0000" foes="0000" cont="0"/>
        <request index="3" response="0000" foes="0000" cont="0"/>
    </junction>
    <junction id="junc1" type="priority" x="200.00" y="0.00" incLanes="edge_14_0 edge_14_1 edge_2_0 edge_2_1 edge_13_0 edge_13_1" intLanes=":junc1_0_0 :junc1_0_1 :junc1_10_0 :junc1_3_0 :junc1_4_0 :junc1_5_0 :junc1_6_0 :junc1_7_0 :junc1_8_0 :junc1_8_1" shape="210.40,6.40 210.40,-6.40 206.40,-10.40 193.60,-10.40 189.60,-6.40 189.60,6.40">
        <request index="0" response="0000000000" foes="0000100000" cont="0"/>
        <request index="1" response="0000000000" foes="0000100000" cont="0"/>
        <request index="2" response="1111000000" foes="1111100000" cont="1"/>
        <request index="3" response="1100000000" foes="1100000000" cont="0"/>
        <request index="4" response="1100000000" foes="1100000000" cont="0"/>
        <request index="5" response="1100000111" foes="1100000111" cont="0"/>
        <request index="6" response="0000000000" foes="0000000100" cont="0"/>
        <request index="7" response="0000000000" foes="0000000100" cont="0"/>
        <request index="8" response="0000000000" foes="0000111100" cont="0"/>
        <request index="9" response="0000000000" foes="0000111100" cont="0"/>
    </junction>
    <junction id="junc2" type="priority" x="400.00" y="0.00" incLanes="edge_4_0 edge_4_1 edge_15_0 edge_15_1" intLanes=":junc2_0_0 :junc2_1_0 :junc2_2_0 :junc2_3_0" shape="406.40,-6.40 393.60,-6.40 393.60,6.40">
        <request index="0" response="0000" foes="0000" cont="0"/>
        <request index="1" response="0000" foes="0000" cont="0"/>
        <request index="2" response="0000" foes="0000" cont="0"/>
        <request index="3" response="0000" foes="0000" cont="0"/>
    </junction>
    <junction id="junc3" type="priority" x="0.00" y="-200.00" incLanes="edge_1_0 edge_1_1 edge_16_0 edge_16_1 edge_6_0 edge_6_1" intLanes=":junc3_0_0 :junc3_0_1 :junc3_10_0 :junc3_3_0 :junc3_4_0 :junc3_5_0 :junc3_6_0 :junc3_7_0 :junc3_8_0 :junc3_8_1" shape="-6.40,-189.60 6.40,-189.60 10.40,-193.60 10.40,-206.40 6.40,-210.40 -6.40,-210.40">
        <request index="0" response="0000000000" foes="0000100000" cont="0"/>
        <request index="1" response="0000000000" foes="0000100000" cont="0"/>
        <request index="2" response="1111000000" foes="1111100000" cont="1"/>
        <request index="3" response="1100000000" foes="1100000000" cont="0"/>
        <request index="4" response="1100000000" foes="1100000000" cont="0"/>
        <request index="5" response="1100000111" foes="1100000111" cont="0"/>
        <request index="6" response="0000000000" foes="0000000100" cont="0"/>
        <request index="7" response="0000000000" foes="0000000100" cont="0"/>
        <request index="8" response="0000000000" foes="0000111100" cont="0"/>
        <request index="9" response="0000000000" foes="0000111100" cont="0"/>
    </junction>
    <junction id="junc4" type="traffic_light" x="200.00" y="-200.00" incLanes="edge_3_0 edge_3_1 edge_18_0 edge_18_1 edge_8_0 edge_8_1 edge_17_0 edge_17_1" intLanes=":junc4_0_0 :junc4_1_0 :junc4_2_0 :junc4_2_1 :junc4_20_0 :junc4_5_0 :junc4_6_0 :junc4_7_0 :junc4_7_1 :junc4_21_0 :junc4_10_0 :junc4_11_0 :junc4_12_0 :junc4_12_1 :junc4_22_0 :junc4_15_0 :junc4_16_0 :junc4_17_0 :junc4_17_1 :junc4_23_0" shape="193.60,-189.60 206.40,-189.60 210.40,-193.60 210.40,-206.40 206.40,-210.40 193.60,-210.40 189.60,-206.40 189.60,-193.60">
        <request index="0"  response="00000000000000000000" foes="00000100000110000000" cont="0"/>
        <request index="1"  response="00000000000000000000" foes="00000100000110000000" cont="0"/>
        <request index="2"  response="10000000001000000000" foes="11111100001110000000" cont="0"/>
        <request index="3"  response="10000000001000000000" foes="11111100001110000000" cont="0"/>
        <request index="4"  response="10000011111000000000" foes="11100011111110000000" cont="1"/>
        <request index="5"  response="00000011000000000000" foes="10000011000000000000" cont="0"/>
        <request index="6"  response="00000011000000000000" foes="10000011000000000000" cont="0"/>
        <request index="7"  response="00000111000000011111" foes="10000111000000011111" cont="0"/>
        <request index="8"  response="00000111000000011111" foes="10000111000000011111" cont="0"/>
        <request index="9"  response="01111111000000011100" foes="01111111000000011100" cont="1"/>
        <request index="10" response="00000000000000000000" foes="01100000000000010000" cont="0"/>
        <request index="11" response="00000000000000000000" foes="01100000000000010000" cont="0"/>
        <request index="12" response="10000000001000000000" foes="11100000001111110000" cont="0"/>
        <request index="13" response="10000000001000000000" foes="11100000001111110000" cont="0"/>
        <request index="14" response="10000000001000001111" foes="11100000001110001111" cont="1"/>
        <request index="15" response="00000000000000001100" foes="00000000001000001100" cont="0"/>
        <request index="16" response="00000000000000001100" foes="00000000001000001100" cont="0"/>
        <request index="17" response="00000111110000011100" foes="00000111111000011100" cont="0"/>