<?xml version='1.0' encoding='utf-8'?>
<configuration>
  <input>
    <net-file value="grid.net.xml" />
    <route-files value="grid.rou.xml" />
    <additional-files value="grid.poly.xml"/>
  </input>
</configuration>
